
  EPA STORM WATER MANAGEMENT MODEL - VERSION 5.2 (Build 5.2.4)
  PYSWMM TOOLKIT API - VERSION v1.0 (2023-09-27)
  ------------------------------------------------------------

  Exported by StormDesk 2.1.0 
  WARNING 01: wet weather time step reduced to recording interval for Rain Gage 1
  WARNING 02: maximum depth increased for Node XZnode482
  WARNING 02: maximum depth increased for Node XZnode483
  WARNING 02: maximum depth increased for Node XZnode516
  WARNING 02: maximum depth increased for Node XZnode517
  WARNING 02: maximum depth increased for Node XZnode1404
  WARNING 02: maximum depth increased for Node XZnode1405
  WARNING 02: maximum depth increased for Node XZnode1406
  WARNING 02: maximum depth increased for Node XZnode1407
  WARNING 02: maximum depth increased for Node XZnode3217
  WARNING 02: maximum depth increased for Node XZnode3218
  
  ****************
  Analysis Options
  ****************
  Flow Units ............... CMS
  Process Models:
    Rainfall/Runoff ........ YES
    RDII ................... NO
    Snowmelt ............... NO
    Groundwater ............ NO
    Flow Routing ........... YES
    Ponding Allowed ........ YES
    Water Quality .......... NO
  Infiltration Method ...... HORTON
  Flow Routing Method ...... DYNWAVE
  Surcharge Method ......... EXTRAN
  Starting Date ............ 01/01/2020 00:00:00
  Ending Date .............. 01/01/2020 02:15:00
  Antecedent Dry Days ...... 5.0
  Report Time Step ......... 00:10:00
  Wet Time Step ............ 00:01:00
  Dry Time Step ............ 01:00:00
  Routing Time Step ........ 30.00 sec
  Variable Time Step ....... YES
  Maximum Trials ........... 8
  Number of Threads ........ 8
  Head Tolerance ........... 0.005000 m
  
  
  **************************        Volume         Depth
  Runoff Quantity Continuity     hectare-m            mm
  **************************     ---------       -------
  Total Precipitation ......       184.764        82.163
  Evaporation Loss .........         0.000         0.000
  Infiltration Loss ........         3.890         1.730
  Surface Runoff ...........       162.162        72.112
  Final Storage ............        18.930         8.418
  Continuity Error (%) .....        -0.118
  
  
  **************************        Volume        Volume
  Flow Routing Continuity        hectare-m      10^6 ltr
  **************************     ---------     ---------
  Dry Weather Inflow .......         0.000         0.000
  Wet Weather Inflow .......       161.942      1619.437
  Groundwater Inflow .......         0.000         0.000
  RDII Inflow ..............         0.000         0.000
  External Inflow ..........         0.000         0.000
  External Outflow .........        87.176       871.772
  Flooding Loss ............        73.090       730.908
  Evaporation Loss .........         0.000         0.000
  Exfiltration Loss ........         0.000         0.000
  Initial Stored Volume ....         0.000         0.000
  Final Stored Volume ......         1.791        17.908
  Continuity Error (%) .....        -0.071
  
  
  *************************
  Highest Continuity Errors
  *************************
  Node XZnode3331 (98.97%)
  Node XZnode2953 (97.21%)
  Node XZnode3134 (94.87%)
  Node XZnode3288 (94.34%)
  Node XZnode1334 (53.73%)
  
  
  ***************************
  Time-Step Critical Elements
  ***************************
  Link link2307 (60.10%)
  Link link2627 (30.99%)
  Link link2297 (4.92%)
  
  
  ********************************
  Highest Flow Instability Indexes
  ********************************
  Link link978 (50)
  Link link972 (47)
  Link link2276 (45)
  Link link973 (42)
  Link link2328 (29)
  
  
  *********************************
  Most Frequent Nonconverging Nodes
  *********************************
  Node XZ_O34 (11.00%)
  Node XZ_O35 (11.00%)
  Node XZ_O36 (11.00%)
  Node XZ_O37 (11.00%)
  Node XZ_O49 (11.00%)
  
  
  *************************
  Routing Time Step Summary
  *************************
  Minimum Time Step           :     0.50 sec
  Average Time Step           :     1.26 sec
  Maximum Time Step           :    30.00 sec
  % of Time in Steady State   :     0.00
  Average Iterations per Step :     4.21
  % of Steps Not Converging   :    11.00
  Time Step Frequencies       :
     30.000 - 13.228 sec      :     0.06 %
     13.228 -  5.833 sec      :     0.22 %
      5.833 -  2.572 sec      :     1.92 %
      2.572 -  1.134 sec      :    52.35 %
      1.134 -  0.500 sec      :    45.46 %
  
  
  ***************************
  Subcatchment Runoff Summary
  ***************************
  
  ------------------------------------------------------------------------------------------------------------------------------
                            Total      Total      Total      Total     Imperv       Perv      Total       Total     Peak  Runoff
                           Precip      Runon       Evap      Infil     Runoff     Runoff     Runoff      Runoff   Runoff   Coeff
  Subcatchment                 mm         mm         mm         mm         mm         mm         mm    10^6 ltr      CMS
  ------------------------------------------------------------------------------------------------------------------------------
  C3                        82.16       0.00       0.00       1.73       0.52      76.65      77.17        7.34     2.65   0.939
  C4                        82.16       0.00       0.00       1.73       0.52      59.73      60.26       50.74    11.70   0.733
  C5                        82.16       0.00       0.00       1.74       0.29      70.63      70.93       49.18    14.01   0.863
  C1632                     82.16       0.00       0.00       1.73       0.38      67.23      67.61       47.40    12.42   0.823
  C2185                     82.16       0.00       0.00       1.74       0.27      75.19      75.46       23.20     7.72   0.918
  C2252                     82.16       0.00       0.00       1.73       0.47      71.62      72.09       28.23     8.31   0.877
  C2254                     82.16       0.00       0.00       1.73       0.69      75.00      75.69        3.37     1.13   0.921
  C2255                     82.16       0.00       0.00       1.73       0.65      65.44      66.09       26.69     6.77   0.804
  C2256                     82.16       0.00       0.00       1.74       0.16      76.63      76.80        8.79     3.12   0.935
  C2257                     82.16       0.00       0.00       1.73       0.36      72.86      73.22       19.15     5.85   0.891
  C2258                     82.16       0.00       0.00       1.73       0.66      71.63      72.29        8.64     2.56   0.880
  C2260                     82.16       0.00       0.00       1.73       0.66      69.60      70.26       11.96     3.34   0.855
  C2262                     82.16       0.00       0.00       1.73       0.47      78.61      79.09        1.55     0.64   0.963
  C2264                     82.16       0.00       0.00       1.73       0.62      78.24      78.86        0.41     0.17   0.960
  C2265                     82.16       0.00       0.00       1.73       0.64      73.79      74.44        3.83     1.22   0.906
  C2266                     82.16       0.00       0.00       1.72       0.80      78.25      79.05        0.20     0.08   0.962
  C2267                     82.16       0.00       0.00       1.73       0.59      75.22      75.81        4.03     1.36   0.923
  C2268                     82.16       0.00       0.00       1.73       0.66      74.34      74.99        3.40     1.11   0.913
  C2269                     82.16       0.00       0.00       1.73       0.53      74.87      75.40        8.62     2.86   0.918
  C2270                     82.16       0.00       0.00       1.73       0.38      73.21      73.59       35.27    10.92   0.896
  C2271                     82.16       0.00       0.00       1.73       0.61      73.00      73.61        8.30     2.57   0.896
  C2272                     82.16       0.00       0.00       1.73       0.65      73.78      74.43        3.05     0.97   0.906
  C2273                     82.16       0.00       0.00       1.73       0.35      75.32      75.68        7.90     2.65   0.921
  C2274                     82.16       0.00       0.00       1.73       0.54      72.72      73.26        9.88     3.02   0.892
  C2275                     82.16       0.00       0.00       1.73       0.67      76.45      77.12        1.54     0.56   0.939
  C2276                     82.16       0.00       0.00       1.73       0.62      73.09      73.71        5.93     1.84   0.897
  C2277                     82.16       0.00       0.00       1.73       0.57      74.70      75.28        3.45     1.14   0.916
  C2278                     82.16       0.00       0.00       1.73       0.60      70.56      71.16       10.44     2.99   0.866
  C2279                     82.16       0.00       0.00       1.73       0.60      65.43      66.03       32.38     8.20   0.804
  C2282                     82.16       0.00       0.00       1.73       0.62      70.01      70.63       11.14     3.14   0.860
  C2283                     82.16       0.00       0.00       1.73       0.51      74.81      75.32        6.15     2.03   0.917
  C2284                     82.16       0.00       0.00       1.73       0.69      71.18      71.87        4.13     1.21   0.875
  C2285                     82.16       0.00       0.00       1.73       0.60      78.28      78.89        1.45     0.58   0.960
  C2286                     82.16       0.00       0.00       1.73       0.71      77.81      78.52        0.81     0.32   0.956
  C2287                     82.16       0.00       0.00       1.73       0.60      70.81      71.41        8.85     2.55   0.869
  C2288                     82.16       0.00       0.00       1.73       0.64      73.58      74.22        5.00     1.58   0.903
  C2289                     82.16       0.00       0.00       1.73       0.67      74.61      75.28        5.93     1.96   0.916
  C2290                     82.16       0.00       0.00       1.73       0.69      72.68      73.37        3.79     1.16   0.893
  C2291                     82.16       0.00       0.00       1.73       0.62      71.38      71.99        8.84     2.59   0.876
  C2292                     82.16       0.00       0.00       1.73       0.49      75.37      75.86        4.79     1.62   0.923
  C2293                     82.16       0.00       0.00       1.74       0.28      78.13      78.40        1.44     0.56   0.954
  C2294                     82.16       0.00       0.00       1.73       0.57      75.95      76.52        4.69     1.64   0.931
  C2295                     82.16       0.00       0.00       1.73       0.62      74.73      75.35        6.41     2.12   0.917
  C2296                     82.16       0.00       0.00       1.73       0.56      70.53      71.09       13.11     3.74   0.865
  C2298                     82.16       0.00       0.00       1.73       0.64      73.32      73.96        4.67     1.46   0.900
  C2299                     82.16       0.00       0.00       1.73       0.61      68.72      69.33       13.68     3.73   0.844
  C2300                     82.16       0.00       0.00       1.73       0.67      78.55      79.22        0.18     0.07   0.964
  C2301                     82.16       0.00       0.00       1.73       0.62      74.62      75.23        6.36     2.09   0.916
  C2302                     82.16       0.00       0.00       1.73       0.65      75.35      76.00        2.37     0.81   0.925
  C2303                     82.16       0.00       0.00       1.73       0.68      75.58      76.26        2.84     0.98   0.928
  C2304                     82.16       0.00       0.00       1.73       0.62      76.95      77.57        3.83     1.41   0.944
  C2305                     82.16       0.00       0.00       1.73       0.65      76.94      77.59        3.31     1.22   0.944
  C2306                     82.16       0.00       0.00       1.73       0.66      73.97      74.63        1.98     0.63   0.908
  C2307                     82.16       0.00       0.00       1.73       0.66      74.32      74.98        4.94     1.61   0.913
  C2308                     82.16       0.00       0.00       1.73       0.62      79.24      79.86        0.30     0.13   0.972
  C2309                     82.16       0.00       0.00       1.73       0.64      75.12      75.77        3.11     1.05   0.922
  C2310                     82.16       0.00       0.00       1.73       0.66      73.69      74.35        3.34     1.06   0.905
  C2311                     82.16       0.00       0.00       1.73       0.63      74.43      75.06        5.34     1.75   0.914
  C2312                     82.16       0.00       0.00       1.73       0.66      74.03      74.69        3.47     1.12   0.909
  C2313                     82.16       0.00       0.00       1.73       0.71      70.17      70.89        4.28     1.21   0.863
  C2314                     82.16       0.00       0.00       1.73       0.65      75.68      76.33        2.52     0.87   0.929
  C2315                     82.16       0.00       0.00       1.73       0.64      75.00      75.64        4.16     1.39   0.921
  C2316                     82.16       0.00       0.00       1.73       0.65      73.18      73.83        2.65     0.83   0.899
  C2317                     82.16       0.00       0.00       1.73       0.62      73.78      74.39        5.61     1.78   0.905
  C2318                     82.16       0.00       0.00       1.73       0.63      65.80      66.42        5.98     1.53   0.808
  C2319                     82.16       0.00       0.00       1.73       0.65      75.93      76.58        1.84     0.65   0.932
  C2320                     82.16       0.00       0.00       1.73       0.54      73.62      74.17        6.24     1.97   0.903
  C2321                     82.16       0.00       0.00       1.73       0.58      76.00      76.58        6.51     2.28   0.932
  C2322                     82.16       0.00       0.00       1.73       0.53      78.46      79.00        1.49     0.60   0.961
  C2323                     82.16       0.00       0.00       1.73       0.56      77.64      78.20        4.27     1.64   0.952
  C2324                     82.16       0.00       0.00       1.73       0.70      73.96      74.65        2.84     0.91   0.909
  C2325                     82.16       0.00       0.00       1.73       0.61      71.44      72.05        5.41     1.59   0.877
  C2326                     82.16       0.00       0.00       1.73       0.63      75.18      75.81        4.24     1.43   0.923
  C2327                     82.16       0.00       0.00       1.73       0.66      73.80      74.46        4.06     1.29   0.906
  C2328                     82.16       0.00       0.00       1.73       0.63      75.88      76.51        3.49     1.22   0.931
  C2329                     82.16       0.00       0.00       1.73       0.67      57.38      58.05        6.46     1.45   0.707
  C2330                     82.16       0.00       0.00       1.73       0.56      69.61      70.17        7.71     2.15   0.854
  C2331                     82.16       0.00       0.00       1.73       0.67      75.68      76.35        2.18     0.76   0.929
  C2332                     82.16       0.00       0.00       1.73       0.61      74.16      74.77        8.27     2.67   0.910
  C2333                     82.16       0.00       0.00       1.73       0.76      78.88      79.64        0.11     0.05   0.969
  C2334                     82.16       0.00       0.00       1.73       0.67      76.48      77.15        1.55     0.56   0.939
  C2335                     82.16       0.00       0.00       1.73       0.64      74.22      74.86        3.26     1.06   0.911
  C2336                     82.16       0.00       0.00       1.73       0.67      74.74      75.41        4.68     1.55   0.918
  C2337                     82.16       0.00       0.00       1.73       0.61      75.50      76.11        5.35     1.83   0.926
  C2338                     82.16       0.00       0.00       1.73       0.67      70.81      71.48        9.48     2.74   0.870
  C2339                     82.16       0.00       0.00       1.73       0.70      75.47      76.17        1.40     0.48   0.927
  C2340                     82.16       0.00       0.00       1.73       0.67      73.48      74.15        4.67     1.47   0.903
  C2341                     82.16       0.00       0.00       1.73       0.54      78.87      79.41        0.20     0.08   0.967
  C2342                     82.16       0.00       0.00       1.73       0.63      71.82      72.45        4.25     1.26   0.882
  C2343                     82.16       0.00       0.00       1.73       0.61      76.03      76.65        3.05     1.07   0.933
  C2344                     82.16       0.00       0.00       1.73       0.64      76.25      76.88        2.96     1.05   0.936
  C2345                     82.16       0.00       0.00       1.73       0.64      73.69      74.33        1.91     0.61   0.905
  C2346                     82.16       0.00       0.00       1.73       0.67      72.54      73.21        4.07     1.24   0.891
  C2347                     82.16       0.00       0.00       1.73       0.66      72.26      72.92       11.03     3.33   0.888
  C2348                     82.16       0.00       0.00       1.73       0.64      77.40      78.04        1.50     0.57   0.950
  C2349                     82.16       0.00       0.00       1.73       0.67      75.28      75.95        3.00     1.02   0.924
  C2350                     82.16       0.00       0.00       1.73       0.51      77.94      78.45        3.30     1.29   0.955
  C2351                     82.16       0.00       0.00       1.73       0.67      73.82      74.49        3.88     1.24   0.907
  C2352                     82.16       0.00       0.00       1.73       0.56      74.28      74.84        2.77     0.90   0.911
  C2353                     82.16       0.00       0.00       1.73       0.63      75.80      76.43        3.50     1.21   0.930
  C2354                     82.16       0.00       0.00       1.73       0.58      75.97      76.54        3.68     1.29   0.932
  C2355                     82.16       0.00       0.00       1.73       0.68      76.59      77.27        2.75     1.00   0.940
  C2356                     82.16       0.00       0.00       1.73       0.63      76.12      76.75        5.03     1.77   0.934
  C2357                     82.16       0.00       0.00       1.73       0.57      75.84      76.41        2.87     0.99   0.930
  C2358                     82.16       0.00       0.00       1.74       0.22      75.66      75.88        4.07     1.38   0.924
  C2359                     82.16       0.00       0.00       1.73       0.67      75.37      76.05        3.09     1.05   0.926
  C2360                     82.16       0.00       0.00       1.73       0.62      76.37      76.99        2.97     1.06   0.937
  C2361                     82.16       0.00       0.00       1.73       0.66      75.86      76.52        2.12     0.74   0.931
  C2362                     82.16       0.00       0.00       1.73       0.68      75.02      75.70        5.23     1.76   0.921
  C2363                     82.16       0.00       0.00       1.73       0.53      73.09      73.62       11.66     3.61   0.896
  C2364                     82.16       0.00       0.00       1.73       0.44      76.33      76.77        1.51     0.53   0.934
  C2365                     82.16       0.00       0.00       1.73       0.67      76.92      77.60        2.13     0.79   0.944
  C2366                     82.16       0.00       0.00       1.73       0.33      77.31      77.64        4.82     1.79   0.945
  C2367                     82.16       0.00       0.00       1.73       0.49      78.37      78.86        0.51     0.20   0.960
  C2368                     82.16       0.00       0.00       1.73       0.64      71.27      71.91        8.00     2.34   0.875
  C2369                     82.16       0.00       0.00       1.73       0.50      74.82      75.32        4.34     1.43   0.917
  C2370                     82.16       0.00       0.00       1.73       0.51      72.26      72.77        7.92     2.38   0.886
  C2371                     82.16       0.00       0.00       1.73       0.52      75.41      75.92        6.97     2.36   0.924
  C2372                     82.16       0.00       0.00       1.73       0.40      75.22      75.62        7.76     2.60   0.920
  C2373                     82.16       0.00       0.00       1.73       0.60      74.58      75.18        7.12     2.34   0.915
  C2374                     82.16       0.00       0.00       1.73       0.65      68.59      69.25        6.78     1.84   0.843
  C2375                     82.16       0.00       0.00       1.73       0.39      75.27      75.66        4.39     1.47   0.921
  C2376                     82.16       0.00       0.00       1.73       0.43      77.04      77.46        7.14     2.62   0.943
  C2377                     82.16       0.00       0.00       1.73       0.62      78.04      78.66        1.59     0.63   0.957
  C2378                     82.16       0.00       0.00       1.73       0.63      77.32      77.95        2.03     0.77   0.949
  C2379                     82.16       0.00       0.00       1.73       0.66      73.78      74.44        3.83     1.22   0.906
  C2380                     82.16       0.00       0.00       1.73       0.65      75.71      76.37        4.06     1.41   0.929
  C2381                     82.16       0.00       0.00       1.73       0.62      69.66      70.28        8.99     2.51   0.855
  C2382                     82.16       0.00       0.00       1.73       0.39      73.99      74.38       15.53     4.95   0.905
  C2383                     82.16       0.00       0.00       1.73       0.62      78.26      78.88        2.43     0.98   0.960
  C2384                     82.16       0.00       0.00       1.73       0.61      76.24      76.85        7.58     2.69   0.935
  C2385                     82.16       0.00       0.00       1.73       0.48      76.34      76.82        9.64     3.42   0.935
  C2386                     82.16       0.00       0.00       1.73       0.46      76.66      77.12        6.46     2.33   0.939
  C2387                     82.16       0.00       0.00       1.73       0.58      74.97      75.54       11.36     3.79   0.919
  C2388                     82.16       0.00       0.00       1.73       0.49      76.32      76.81        4.45     1.58   0.935
  C2389                     82.16       0.00       0.00       1.74       0.24      77.01      77.25        6.03     2.19   0.940
  C2390                     82.16       0.00       0.00       1.73       0.51      73.52      74.03       14.97     4.70   0.901
  C2391                     82.16       0.00       0.00       1.73       0.59      72.34      72.92       16.06     4.85   0.888
  C2392                     82.16       0.00       0.00       1.73       0.64      75.43      76.08        8.84     3.02   0.926
  C2393                     82.16       0.00       0.00       1.73       0.54      73.61      74.15       17.61     5.56   0.902
  C2394                     82.16       0.00       0.00       1.73       0.63      76.97      77.60        4.36     1.61   0.944
  C2395                     82.16       0.00       0.00       1.73       0.32      74.91      75.23       14.04     4.63   0.916
  C2396                     82.16       0.00       0.00       1.73       0.64      76.29      76.92        1.59     0.57   0.936
  C2397                     82.16       0.00       0.00       1.73       0.62      73.89      74.52        4.81     1.54   0.907
  C2398                     82.16       0.00       0.00       1.73       0.61      76.07      76.68        3.30     1.16   0.933
  C2399                     82.16       0.00       0.00       1.73       0.62      75.48      76.11        3.85     1.32   0.926
  C2400                     82.16       0.00       0.00       1.73       0.61      76.06      76.67        4.33     1.52   0.933
  C2401                     82.16       0.00       0.00       1.73       0.64      75.56      76.20        5.58     1.92   0.927
  C2402                     82.16       0.00       0.00       1.73       0.65      72.96      73.61        6.73     2.08   0.896
  C2403                     82.16       0.00       0.00       1.73       0.51      72.19      72.71       11.78     3.54   0.885
  C2404                     82.16       0.00       0.00       1.73       0.64      74.69      75.32        6.28     2.08   0.917
  C2405                     82.16       0.00       0.00       1.73       0.65      74.93      75.58        7.36     2.46   0.920
  C2406                     82.16       0.00       0.00       1.73       0.62      75.80      76.42        5.56     1.93   0.930
  C2407                     82.16       0.00       0.00       1.73       0.58      76.32      76.90        3.99     1.42   0.936
  C2408                     82.16       0.00       0.00       1.73       0.63      72.17      72.81        3.99     1.20   0.886
  C2409                     82.16       0.00       0.00       1.73       0.67      78.51      79.18        1.02     0.42   0.964
  C2410                     82.16       0.00       0.00       1.73       0.60      75.38      75.98        5.82     1.98   0.925
  C2411                     82.16       0.00       0.00       1.73       0.61      76.74      77.35        1.28     0.47   0.941
  C2412                     82.16       0.00       0.00       1.73       0.57      75.89      76.46        5.08     1.77   0.931
  C2413                     82.16       0.00       0.00       1.73       0.61      74.96      75.57        4.40     1.47   0.920
  C2414                     82.16       0.00       0.00       1.73       0.61      75.79      76.40        2.90     1.00   0.930
  C2415                     82.16       0.00       0.00       1.73       0.60      75.99      76.59        3.64     1.28   0.932
  C2416                     82.16       0.00       0.00       1.73       0.66      74.82      75.48        4.54     1.51   0.919
  C2417                     82.16       0.00       0.00       1.73       0.67      75.81      76.47        4.26     1.48   0.931
  C2418                     82.16       0.00       0.00       1.73       0.67      74.83      75.49        2.22     0.74   0.919
  C2419                     82.16       0.00       0.00       1.73       0.64      70.47      71.10        2.68     0.77   0.865
  C2420                     82.16       0.00       0.00       1.73       0.60      76.53      77.13        2.16     0.78   0.939
  C2421                     82.16       0.00       0.00       1.73       0.66      76.34      77.00        2.25     0.80   0.937
  C2422                     82.16       0.00       0.00       1.73       0.56      71.51      72.07       10.60     3.12   0.877
  C2423                     82.16       0.00       0.00       1.73       0.62      69.95      70.57       14.18     3.99   0.859
  C2424                     82.16       0.00       0.00       1.73       0.66      75.73      76.39        2.74     0.95   0.930
  C2425                     82.16       0.00       0.00       1.73       0.63      67.50      68.13       19.95     5.28   0.829
  C2426                     82.16       0.00       0.00       1.73       0.59      78.34      78.93        0.43     0.17   0.961
  C2427                     82.16       0.00       0.00       1.73       0.59      77.07      77.66        2.31     0.86   0.945
  C2428                     82.16       0.00       0.00       1.73       0.67      77.27      77.94        0.35     0.13   0.949
  C2429                     82.16       0.00       0.00       1.73       0.67      74.81      75.49        3.03     1.01   0.919
  C2430                     82.16       0.00       0.00       1.73       0.63      73.14      73.77        3.94     1.23   0.898
  C2431                     82.16       0.00       0.00       1.73       0.60      71.48      72.09       13.43     3.95   0.877
  C2432                     82.16       0.00       0.00       1.73       0.62      73.09      73.72        5.79     1.80   0.897
  C2433                     82.16       0.00       0.00       1.73       0.67      74.09      74.76        3.74     1.21   0.910
  C2434                     82.16       0.00       0.00       1.73       0.58      73.27      73.85        5.81     1.82   0.899
  C2435                     82.16       0.00       0.00       1.73       0.57      75.15      75.72        2.74     0.92   0.922
  C2436                     82.16       0.00       0.00       1.73       0.61      74.68      75.28        3.24     1.07   0.916
  C2437                     82.16       0.00       0.00       1.73       0.55      73.79      74.35       13.99     4.45   0.905
  C2439                     82.16       0.00       0.00       1.73       0.66      76.32      76.97        6.20     2.21   0.937
  C2440                     82.16       0.00       0.00       1.73       0.66      75.89      76.55        5.00     1.75   0.932
  C2441                     82.16       0.00       0.00       1.73       0.57      76.36      76.93        3.24     1.15   0.936
  C2442                     82.16       0.00       0.00       1.73       0.61      73.20      73.81        0.46     0.14   0.898
  C2443                     82.16       0.00       0.00       1.73       0.72      78.68      79.40        0.19     0.08   0.966
  C2444                     82.16       0.00       0.00       1.73       0.58      78.49      79.08        0.11     0.05   0.962
  C2445                     82.16       0.00       0.00       1.73       0.62      77.19      77.81        0.84     0.31   0.947
  C2446                     82.16       0.00       0.00       1.73       0.68      77.66      78.35        1.35     0.52   0.954
  C2447                     82.16       0.00       0.00       1.73       0.67      76.74      77.41        1.70     0.62   0.942
  C2448                     82.16       0.00       0.00       1.73       0.67      76.36      77.03        2.22     0.80   0.937
  C2449                     82.16       0.00       0.00       1.73       0.67      75.53      76.20        2.31     0.79   0.927
  C2450                     82.16       0.00       0.00       1.73       0.66      76.56      77.22        1.53     0.55   0.940
  C2451                     82.16       0.00       0.00       1.73       0.67      76.84      77.52        1.53     0.56   0.943
  C2452                     82.16       0.00       0.00       1.73       0.71      76.44      77.15        1.83     0.66   0.939
  C2453                     82.16       0.00       0.00       1.73       0.69      76.69      77.38        0.82     0.30   0.942
  C2454                     82.16       0.00       0.00       1.73       0.66      73.98      74.65        3.74     1.20   0.909
  C2455                     82.16       0.00       0.00       1.73       0.67      77.22      77.88        1.69     0.63   0.948
  C2456                     82.16       0.00       0.00       1.73       0.67      76.78      77.45        3.32     1.21   0.943
  C2457                     82.16       0.00       0.00       1.73       0.62      77.12      77.74        1.96     0.73   0.946
  C2458                     82.16       0.00       0.00       1.73       0.63      77.34      77.97        3.94     1.49   0.949
  C2459                     82.16       0.00       0.00       1.73       0.62      74.21      74.83        7.15     2.31   0.911
  C2460                     82.16       0.00       0.00       1.73       0.41      77.75      78.16        2.56     0.98   0.951
  C2461                     82.16       0.00       0.00       1.73       0.52      78.40      78.92        2.01     0.81   0.961
  C2462                     82.16       0.00       0.00       1.73       0.45      78.30      78.75        3.30     1.32   0.958
  C2463                     82.16       0.00       0.00       1.73       0.57      73.82      74.39        6.88     2.19   0.905
  C2464                     82.16       0.00       0.00       1.73       0.61      73.26      73.87        5.68     1.77   0.899
  C2465                     82.16       0.00       0.00       1.73       0.64      69.03      69.67       13.39     3.68   0.848
  C2466                     82.16       0.00       0.00       1.73       0.64      69.22      69.85       13.78     3.81   0.850
  C2467                     82.16       0.00       0.00       1.73       0.60      71.94      72.54        8.85     2.64   0.883
  C2468                     82.16       0.00       0.00       1.73       0.67      74.42      75.10        3.15     1.03   0.914
  C2469                     82.16       0.00       0.00       1.73       0.63      74.30      74.94        3.87     1.26   0.912
  C2470                     82.16       0.00       0.00       1.73       0.63      74.17      74.80        3.41     1.10   0.910
  C2471                     82.16       0.00       0.00       1.73       0.53      76.52      77.05        3.12     1.12   0.938
  C2472                     82.16       0.00       0.00       1.73       0.00       0.00       0.00        0.00     0.00   0.000
  C2473                     82.16       0.00       0.00       1.73       0.52      74.05      74.58        7.27     2.33   0.908
  C2474                     82.16       0.00       0.00       1.73       0.61      75.72      76.33        8.33     2.88   0.929
  C2475                     82.16       0.00       0.00       1.73       0.60      75.92      76.52        6.72     2.35   0.931
  C2476                     82.16       0.00       0.00       1.73       0.51      75.06      75.57        4.69     1.57   0.920
  C2477                     82.16       0.00       0.00       1.73       0.62      75.03      75.65        5.63     1.89   0.921
  C2478                     82.16       0.00       0.00       1.73       0.68      76.46      77.14        1.08     0.39   0.939
  C2479                     82.16       0.00       0.00       1.73       0.60      75.60      76.20        1.97     0.68   0.927
  C2480                     82.16       0.00       0.00       1.73       0.59      74.61      75.20        4.53     1.49   0.915
  C2481                     82.16       0.00       0.00       1.73       0.61      74.73      75.33        5.98     1.98   0.917
  C2482                     82.16       0.00       0.00       1.73       0.63      74.77      75.40        4.35     1.44   0.918
  C2483                     82.16       0.00       0.00       1.73       0.64      72.64      73.28        6.84     2.09   0.892
  C2484                     82.16       0.00       0.00       1.73       0.63      76.63      77.26        1.41     0.51   0.940
  C2485                     82.16       0.00       0.00       1.73       0.67      75.67      76.34        3.52     1.22   0.929
  C2486                     82.16       0.00       0.00       1.73       0.63      74.78      75.42        2.50     0.83   0.918
  C2487                     82.16       0.00       0.00       1.73       0.63      76.99      77.62        2.09     0.77   0.945
  C2488                     82.16       0.00       0.00       1.73       0.64      77.15      77.79        2.18     0.81   0.947
  C2489                     82.16       0.00       0.00       1.73       0.67      75.40      76.07        4.15     1.42   0.926
  C2490                     82.16       0.00       0.00       1.73       0.67      76.52      77.19        0.82     0.29   0.939
  C2491                     82.16       0.00       0.00       1.73       0.66      78.00      78.66        0.40     0.16   0.957
  C2492                     82.16       0.00       0.00       1.73       0.67      77.50      78.16        0.51     0.19   0.951
  C2493                     82.16       0.00       0.00       1.73       0.56      76.00      76.56        4.18     1.46   0.932
  C2494                     82.16       0.00       0.00       1.73       0.66      77.39      78.05        1.40     0.53   0.950
  C2495                     82.16       0.00       0.00       1.73       0.68      75.84      76.52        1.51     0.53   0.931
  C2496                     82.16       0.00       0.00       1.73       0.62      75.58      76.19        2.39     0.82   0.927
  C2497                     82.16       0.00       0.00       1.73       0.58      77.81      78.38        1.59     0.62   0.954
  C2498                     82.16       0.00       0.00       1.73       0.58      75.69      76.27        2.89     1.00   0.928
  C2499                     82.16       0.00       0.00       1.73       0.58      77.65      78.23        2.57     0.99   0.952
  C2501                     82.16       0.00       0.00       1.73       0.36      61.99      62.35       16.26     3.87   0.759
  C2502                     82.16       0.00       0.00       1.73       0.53      75.20      75.73        6.03     2.03   0.922
  C2503                     82.16       0.00       0.00       1.73       0.63      77.02      77.64        5.18     1.92   0.945
  C2504                     82.16       0.00       0.00       1.73       0.40      77.11      77.50        4.54     1.67   0.943
  C2505                     82.16       0.00       0.00       1.73       0.66      74.37      75.03        6.99     2.28   0.913
  C2506                     82.16       0.00       0.00       1.73       0.66      72.08      72.74        3.45     1.03   0.885
  C4044                     82.16       0.00       0.00       1.73       0.37      75.18      75.56        6.89     2.30   0.920
  C4045                     82.16       0.00       0.00       1.73       0.56      75.96      76.52        4.36     1.52   0.931
  C4046                     82.16       0.00       0.00       1.73       0.62      74.64      75.26        3.89     1.28   0.916
  C4047                     82.16       0.00       0.00       1.73       0.65      76.76      77.41        2.50     0.91   0.942
  C4048                     82.16       0.00       0.00       1.73       0.58      76.83      77.41        3.47     1.27   0.942
  C4049                     82.16       0.00       0.00       1.73       0.58      73.01      73.59        3.17     0.98   0.896
  C4050                     82.16       0.00       0.00       1.73       0.45      75.30      75.74        4.62     1.55   0.922
  C4051                     82.16       0.00       0.00       1.73       0.64      76.64      77.28        1.65     0.60   0.941
  C4052                     82.16       0.00       0.00       1.73       0.67      74.97      75.64        3.53     1.18   0.921
  C4053                     82.16       0.00       0.00       1.73       0.66      76.42      77.07        1.48     0.53   0.938
  C4054                     82.16       0.00       0.00       1.73       0.62      74.37      74.99        2.48     0.81   0.913
  C4055                     82.16       0.00       0.00       1.73       0.57      76.12      76.69        2.77     0.98   0.933
  C4056                     82.16       0.00       0.00       1.73       0.61      75.61      76.22        2.86     0.98   0.928
  C4057                     82.16       0.00       0.00       1.73       0.65      76.97      77.63        1.52     0.56   0.945
  C4058                     82.16       0.00       0.00       1.73       0.57      76.31      76.88        1.57     0.56   0.936
  C4059                     82.16       0.00       0.00       1.73       0.64      74.39      75.03        1.40     0.46   0.913
  C4060                     82.16       0.00       0.00       1.73       0.60      75.56      76.16        3.50     1.20   0.927
  C4061                     82.16       0.00       0.00       1.73       0.65      76.08      76.73        2.36     0.83   0.934
  C4062                     82.16       0.00       0.00       1.73       0.57      75.47      76.04        3.81     1.30   0.925
  C4063                     82.16       0.00       0.00       1.73       0.59      77.32      77.92        5.73     2.16   0.948
  C4064                     82.16       0.00       0.00       1.73       0.62      76.71      77.34        3.62     1.32   0.941
  C4065                     82.16       0.00       0.00       1.73       0.65      77.01      77.66        1.17     0.43   0.945
  C4066                     82.16       0.00       0.00       1.73       0.63      75.45      76.08        4.15     1.42   0.926
  C4067                     82.16       0.00       0.00       1.73       0.63      77.89      78.52        1.46     0.57   0.956
  C4068                     82.16       0.00       0.00       1.73       0.58      76.10      76.68        3.10     1.09   0.933
  C4069                     82.16       0.00       0.00       1.73       0.64      76.29      76.92        1.47     0.52   0.936
  C4070                     82.16       0.00       0.00       1.73       0.67      76.48      77.15        1.36     0.49   0.939
  C4071                     82.16       0.00       0.00       1.73       0.61      75.69      76.30        3.02     1.04   0.929
  C4072                     82.16       0.00       0.00       1.73       0.64      73.51      74.15        3.18     1.00   0.902
  C4073                     82.16       0.00       0.00       1.73       0.58      75.79      76.37        2.70     0.94   0.929
  C4074                     82.16       0.00       0.00       1.73       0.00       0.00       0.00        0.00     0.00   0.000
  C4075                     82.16       0.00       0.00       1.73       0.66      76.92      77.58        4.78     1.76   0.944
  C4076                     82.16       0.00       0.00       1.73       0.69      73.92      74.61        3.05     0.98   0.908
  C4077                     82.16       0.00       0.00       1.73       0.63      75.04      75.67        5.25     1.76   0.921
  C4078                     82.16       0.00       0.00       1.73       0.58      76.27      76.84        3.53     1.25   0.935
  C4079                     82.16       0.00       0.00       1.73       0.66      70.73      71.39        3.03     0.87   0.869
  C4080                     82.16       0.00       0.00       1.73       0.65      69.74      70.39        5.53     1.55   0.857
  C4081                     82.16       0.00       0.00       1.73       0.60      74.50      75.10        5.82     1.91   0.914
  C4083                     82.16       0.00       0.00       1.73       0.58      74.58      75.16        3.55     1.16   0.915
  C4084                     82.16       0.00       0.00       1.73       0.54      74.29      74.83        9.27     3.00   0.911
  C4085                     82.16       0.00       0.00       1.73       0.51      76.92      77.42        6.41     2.34   0.942
  
  
  ******************
  Node Depth Summary
  ******************
  
  ---------------------------------------------------------------------------------
                                 Average  Maximum  Maximum  Time of Max    Reported
                                   Depth    Depth      HGL   Occurrence   Max Depth
  Node                 Type       Meters   Meters   Meters  days hr:min      Meters
  ---------------------------------------------------------------------------------
  XZnode464            JUNCTION     1.50     2.00    74.41     0  00:45        1.95
  XZnode465            JUNCTION     1.46     2.00    74.91     0  00:45        1.92
  XZnode466            JUNCTION     1.46     2.00    74.95     0  00:40        1.92
  XZnode467            JUNCTION     1.70     2.00    74.57     0  00:40        2.00
  XZnode468            JUNCTION     1.72     2.00    74.29     0  00:40        2.00
  XZnode469            JUNCTION     1.53     2.00    75.75     0  00:43        2.00
  XZnode470            JUNCTION     1.28     2.00    75.49     0  00:42        2.00
  XZnode471            JUNCTION     0.95     2.00    72.27     0  00:48        2.00
  XZnode472            JUNCTION     1.84     2.00    65.15     0  00:25        2.00
  XZnode473            JUNCTION     0.00     0.00    67.84     0  00:00        0.00
  XZnode474            JUNCTION     0.00     0.00    69.66     0  00:00        0.00
  XZnode475            JUNCTION     1.58     2.00   101.00     0  00:45        2.00
  XZnode476            JUNCTION     0.15     0.17    99.76     0  01:20        0.17
  XZnode477            JUNCTION     0.29     0.41    93.48     0  00:54        0.40
  XZnode478            JUNCTION     0.44     0.72    86.82     0  00:54        0.67
  XZnode480            JUNCTION     0.21     0.25    91.67     0  00:55        0.25
  XZnode481            JUNCTION     0.36     0.42    90.22     0  01:16        0.42
  XZnode482            JUNCTION     0.40     0.46    66.81     0  00:48        0.46
  XZnode483            JUNCTION     0.51     0.58    69.52     0  00:47        0.58
  XZnode484            JUNCTION     1.34     2.00    72.01     0  00:44        1.66
  XZnode485            JUNCTION     1.20     2.00    73.39     0  00:42        1.39
  XZnode486            JUNCTION     1.56     2.00    73.23     0  00:44        2.00
  XZnode487            JUNCTION     1.46     2.00    74.33     0  00:45        1.93
  XZnode488            JUNCTION     0.43     0.50    62.88     0  00:46        0.50
  XZnode489            JUNCTION     0.51     0.60    64.49     0  00:46        0.60
  XZnode490            JUNCTION     1.52     2.00    66.16     0  00:43        2.00
  XZnode491            JUNCTION     0.42     0.49    61.51     0  00:49        0.49
  XZnode492            JUNCTION     1.84     2.00    90.61     0  00:20        2.00
  XZnode493            JUNCTION     1.36     2.00    91.10     0  00:26        1.51
  XZnode494            JUNCTION     0.30     0.45    71.99     0  00:56        0.44
  XZnode496            JUNCTION     0.28     0.41    74.61     0  00:56        0.41
  XZnode497            JUNCTION     0.38     0.58    73.33     0  00:56        0.57
  XZnode498            JUNCTION     0.16     0.25    82.85     0  00:54        0.24
  XZnode499            JUNCTION     0.19     0.29    73.51     0  00:55        0.28
  XZnode500            JUNCTION     0.40     0.60    72.93     0  00:55        0.59
  XZnode501            JUNCTION     0.39     0.63    76.45     0  00:53        0.60
  XZnode502            JUNCTION     0.49     0.75    70.38     0  00:54        0.72
  XZnode503            JUNCTION     0.32     0.53    70.35     0  00:54        0.50
  XZnode504            JUNCTION     0.77     2.00    66.93     0  00:50        2.00
  XZnode505            JUNCTION     0.26     0.42    76.31     0  00:57        0.42
  XZnode506            JUNCTION     0.99     2.00    71.37     0  00:27        1.11
  XZnode507            JUNCTION     1.91     2.00    70.42     0  00:27        2.00
  XZnode508            JUNCTION     1.37     2.00    66.89     0  00:40        2.00
  XZnode509            JUNCTION     1.81     2.00    65.32     0  00:26        2.00
  XZnode510            JUNCTION     1.72     2.00    63.57     0  00:24        1.91
  XZnode511            JUNCTION     1.32     2.00    63.73     0  00:40        2.00
  XZnode512            JUNCTION     1.25     1.66    62.21     0  00:40        1.65
  XZnode514            JUNCTION     1.58     1.75    62.49     0  00:53        1.74
  XZnode516            JUNCTION     0.52     0.82    54.93     0  00:55        0.78
  XZnode517            JUNCTION     0.66     1.06    53.01     0  00:55        1.02
  XZnode519            JUNCTION     1.81     2.00    82.73     0  00:22        2.00
  XZnode520            JUNCTION     0.58     0.92    78.47     0  00:58        0.92
  XZnode770            JUNCTION     0.23     0.24    80.85     0  00:48        0.24
  XZnode771            JUNCTION     0.76     2.00    80.15     0  00:48        1.63
  XZnode1322           JUNCTION     0.52     1.86    77.95     0  00:49        1.06
  XZnode1323           JUNCTION     0.48     2.00    79.72     0  00:49        1.49
  XZnode1324           JUNCTION     0.00     0.00    77.60     0  00:00        0.00
  XZnode1325           JUNCTION     0.00     0.00    78.16     0  00:00        0.00
  XZnode1326           JUNCTION     0.00     0.00    78.12     0  00:00        0.00
  XZnode1327           JUNCTION     0.38     0.62    76.69     0  00:56        0.61
  XZnode1328           JUNCTION     0.00     0.00    77.71     0  00:00        0.00
  XZnode1329           JUNCTION     0.00     0.00    78.09     0  00:00        0.00
  XZnode1330           JUNCTION     0.00     0.00    76.98     0  00:00        0.00
  XZnode1331           JUNCTION     0.00     0.00    78.18     0  00:00        0.00
  XZnode1332           JUNCTION     1.90     2.00    80.18     0  00:18        2.00
  XZnode1333           JUNCTION     1.63     2.00    80.45     0  00:18        1.73
  XZnode1334           JUNCTION     1.81     2.00    80.26     0  00:18        1.91
  XZnode1335           JUNCTION     1.58     2.00    80.50     0  00:18        1.69
  XZnode1336           JUNCTION     0.14     2.00    80.39     0  00:50        0.61
  XZnode1337           JUNCTION     0.76     1.79    79.41     0  00:50        1.37
  XZnode1338           JUNCTION     0.42     0.65    78.35     0  00:53        0.59
  XZnode1339           JUNCTION     1.26     2.00    79.46     0  00:53        1.38
  XZnode1340           JUNCTION     0.80     1.88    79.75     0  00:53        0.91
  XZnode1341           JUNCTION     0.61     2.00    79.96     0  00:53        0.74
  XZnode1342           JUNCTION     1.45     2.00    79.74     0  00:43        2.00
  XZnode1343           JUNCTION     1.33     2.00    79.88     0  00:43        1.88
  XZnode1344           JUNCTION     1.39     2.00    80.33     0  00:30        2.00
  XZnode1345           JUNCTION     1.54     2.00    71.84     0  00:41        2.00
  XZnode1346           JUNCTION     1.38     2.00    71.02     0  00:41        1.78
  XZnode1347           JUNCTION     1.55     2.00    74.91     0  00:40        2.00
  XZnode1348           JUNCTION     1.12     1.24    65.41     0  00:43        1.23
  XZnode1349           JUNCTION     0.31     0.47    76.10     0  00:54        0.45
  XZnode1350           JUNCTION     0.81     2.00    81.75     0  00:46        2.00
  XZnode1352           JUNCTION     0.43     0.68    69.66     0  00:54        0.65
  XZnode1353           JUNCTION     1.82     2.00    91.35     0  00:27        2.00
  XZnode1354           JUNCTION     0.00     0.00    92.36     0  00:00        0.00
  XZnode1355           JUNCTION     1.58     1.89    90.24     0  00:49        1.89
  XZnode1356           JUNCTION     1.61     2.00    94.48     0  00:39        2.00
  XZnode1357           JUNCTION     0.00     0.00    79.09     0  00:00        0.00
  XZnode1358           JUNCTION     1.90     2.00    79.68     0  00:16        2.00
  XZnode1359           JUNCTION     0.17     0.17    76.79     0  01:41        0.17
  XZnode1361           JUNCTION     0.20     0.30    73.17     0  00:55        0.30
  XZnode1363           JUNCTION     0.15     0.16    71.95     0  00:24        0.16
  XZnode1364           JUNCTION     0.00     0.00    72.18     0  00:00        0.00
  XZnode1365           JUNCTION     0.39     0.50    69.11     0  00:48        0.50
  XZnode1366           JUNCTION     0.35     0.42    71.98     0  01:05        0.42
  XZnode1367           JUNCTION     1.28     1.53    70.82     0  00:55        1.52
  XZnode1368           JUNCTION     0.67     0.80    69.11     0  00:49        0.80
  XZnode1369           JUNCTION     1.08     1.86    70.77     0  00:55        1.81
  XZnode1370           JUNCTION     1.63     2.00    70.00     0  00:46        2.00
  XZnode1371           JUNCTION     1.03     1.27    69.45     0  00:49        1.26
  XZnode1373           JUNCTION     0.37     0.62    86.52     0  00:54        0.59
  XZnode1374           JUNCTION     0.69     2.00    88.40     0  00:48        2.00
  XZnode1376           JUNCTION     1.01     2.00    86.76     0  00:43        2.00
  XZnode1377           JUNCTION     0.43     0.90    94.46     0  00:53        0.76
  XZnode1378           JUNCTION     1.54     2.00    91.96     0  00:29        2.00
  XZnode1379           JUNCTION     1.81     2.00    88.74     0  00:22        2.00
  XZnode1380           JUNCTION     0.55     2.00    72.47     0  00:54        1.31
  XZnode1381           JUNCTION     1.86     2.00    78.62     0  00:19        2.00
  XZnode1382           JUNCTION     0.25     0.25    75.29     0  00:47        0.25
  XZnode1383           JUNCTION     0.00     0.00    76.72     0  00:00        0.00
  XZnode1384           JUNCTION     0.00     0.00    75.09     0  00:00        0.00
  XZnode1385           JUNCTION     0.17     0.18    73.60     0  00:14        0.18
  XZnode1386           JUNCTION     0.07     0.13    90.12     0  00:51        0.12
  XZnode1387           JUNCTION     0.17     0.36    84.53     0  00:51        0.33
  XZnode1388           JUNCTION     0.30     0.48    59.79     0  00:54        0.45
  XZnode1389           JUNCTION     0.31     0.50    59.43     0  00:54        0.47
  XZnode1391           JUNCTION     0.75     2.00    81.18     0  00:33        0.94
  XZnode1392           JUNCTION     1.33     2.00    80.58     0  00:32        1.53
  XZnode1393           JUNCTION     1.69     2.00    81.35     0  00:26        2.00
  XZnode1394           JUNCTION     1.74     2.00    80.70     0  00:32        2.00
  XZnode1395           JUNCTION     1.07     2.00    90.15     0  00:40        2.00
  XZnode1396           JUNCTION     1.95     2.00    78.29     0  00:11        2.00
  XZnode1397           JUNCTION     1.24     2.00    82.47     0  00:38        2.00
  XZnode1398           JUNCTION     1.62     2.00    78.76     0  00:30        2.00
  XZnode1399           JUNCTION     0.98     1.20    75.28     0  00:27        1.15
  XZnode1401           JUNCTION     0.00     0.00    77.12     0  00:00        0.00
  XZnode1402           JUNCTION     1.94     2.00    94.97     0  00:13        2.00
  XZnode1403           JUNCTION     1.98     2.00    92.15     0  00:07        2.00
  XZnode1404           JUNCTION     1.66     2.20    84.50     0  00:50        2.20
  XZnode1405           JUNCTION     1.30     1.85    84.51     0  00:50        1.84
  XZnode1406           JUNCTION     0.55     0.83    84.75     0  00:54        0.78
  XZnode1407           JUNCTION     1.56     2.09    84.47     0  00:51        2.08
  XZnode1408           JUNCTION     1.97     2.00    89.83     0  00:11        2.00
  XZnode1409           JUNCTION     1.98     2.00    78.08     0  00:09        2.00
  XZnode1411           JUNCTION     1.91     2.00    75.60     0  00:16        2.00
  XZnode1412           JUNCTION     1.95     2.00    72.15     0  00:15        2.00
  XZnode1414           JUNCTION     0.24     0.31    71.27     0  00:46        0.31
  XZnode1416           JUNCTION     0.95     2.00    74.27     0  00:42        2.00
  XZnode1417           JUNCTION     0.13     0.36   101.09     0  00:47        0.30
  XZnode1418           JUNCTION     0.00     0.00    99.85     0  00:00        0.00
  XZnode1419           JUNCTION     1.99     2.00    75.71     0  00:05        2.00
  XZnode1420           JUNCTION     1.95     2.00    76.56     0  00:11        2.00
  XZnode1421           JUNCTION     0.00     0.00    69.07     0  00:00        0.00
  XZnode1423           JUNCTION     0.84     2.00   106.25     0  00:48        2.00
  XZnode1424           JUNCTION     0.45     0.73   104.33     0  00:55        0.72
  XZnode1425           JUNCTION     0.45     0.71    98.17     0  00:55        0.70
  XZnode1426           JUNCTION     0.00     0.00   101.87     0  00:00        0.00
  XZnode1427           JUNCTION     0.21     0.23   100.89     0  00:53        0.23
  XZnode1428           JUNCTION     0.93     2.00    75.92     0  00:46        2.00
  XZnode1429           JUNCTION     0.31     0.39    70.26     0  00:47        0.39
  XZnode1430           JUNCTION     0.95     2.00    88.47     0  00:47        2.00
  XZnode1431           JUNCTION     1.74     2.00    83.99     0  00:46        2.00
  XZnode1432           JUNCTION     0.76     2.00    93.86     0  00:46        2.00
  XZnode1433           JUNCTION     0.20     0.28    90.71     0  00:48        0.28
  XZnode1434           JUNCTION     0.00     0.00    78.93     0  00:00        0.00
  XZnode1435           JUNCTION     0.13     0.15    76.06     0  00:48        0.15
  XZnode1436           JUNCTION     1.88     2.00    76.63     0  00:10        2.00
  XZnode1439           JUNCTION     1.92     2.00   106.35     0  00:22        2.00
  XZnode1440           JUNCTION     1.32     1.82   106.72     0  00:16        1.38
  XZnode1441           JUNCTION     1.94     2.00   106.21     0  00:16        2.00
  XZnode1442           JUNCTION     1.64     1.83   106.81     0  00:16        1.75
  XZnode1443           JUNCTION     0.14     0.16   107.38     0  00:37        0.16
  XZnode1444           JUNCTION     1.84     2.00   107.70     0  00:17        2.00
  XZnode2334           JUNCTION     1.28     2.00    95.88     0  00:36        2.00
  XZnode2335           JUNCTION     0.39     0.44    84.34     0  01:35        0.44
  XZnode2336           JUNCTION     0.00     0.00    79.66     0  00:00        0.00
  XZnode2337           JUNCTION     0.00     0.00    97.28     0  00:00        0.00
  XZnode2338           JUNCTION     1.97     2.00    83.47     0  00:10        2.00
  XZnode2339           JUNCTION     0.52     0.67    82.58     0  00:10        0.54
  XZnode2340           JUNCTION     1.97     2.00    82.43     0  00:09        2.00
  XZnode2341           JUNCTION     0.57     2.00   116.01     0  00:49        2.00
  XZnode2722           JUNCTION     1.50     2.00    83.38     0  00:39        2.00
  XZnode2726           JUNCTION     0.28     0.46    91.72     0  00:54        0.44
  XZnode2727           JUNCTION     0.11     0.17    93.10     0  00:55        0.16
  XZnode2728           JUNCTION     0.27     0.47    93.87     0  00:53        0.43
  XZnode2729           JUNCTION     0.23     0.40    93.32     0  00:53        0.36
  XZnode2730           JUNCTION     0.57     0.85    87.16     0  00:53        0.79
  XZnode2731           JUNCTION     1.22     2.00    74.78     0  00:42        2.00
  XZnode2732           JUNCTION     1.29     2.00    74.76     0  00:42        2.00
  XZnode2733           JUNCTION     1.40     2.00    74.92     0  00:42        2.00
  XZnode2734           JUNCTION     0.98     2.00    72.60     0  00:46        2.00
  XZnode2735           JUNCTION     0.62     2.00    72.39     0  00:46        1.61
  XZnode2737           JUNCTION     0.00     0.00    72.99     0  00:00        0.00
  XZnode2738           JUNCTION     0.05     0.18    71.57     0  00:53        0.15
  XZnode2739           JUNCTION     0.16     0.29    71.56     0  00:54        0.27
  XZnode2740           JUNCTION     0.00     0.00    89.39     0  00:00        0.00
  XZnode2741           JUNCTION     0.34     0.50    88.96     0  01:00        0.50
  XZnode2743           JUNCTION     0.26     0.46    99.99     0  00:53        0.42
  XZnode2744           JUNCTION     0.00     0.00   102.16     0  00:00        0.00
  XZnode2745           JUNCTION     0.38     0.62    89.64     0  00:54        0.60
  XZnode2747           JUNCTION     1.97     2.00    78.30     0  00:09        2.00
  XZnode2748           JUNCTION     0.00     0.00   106.21     0  00:00        0.00
  XZnode2749           JUNCTION     0.18     0.20    86.62     0  00:53        0.20
  XZnode2750           JUNCTION     1.91     2.00    97.47     0  00:16        2.00
  XZnode2751           JUNCTION     1.79     2.00    96.89     0  00:16        2.00
  XZnode2752           JUNCTION     0.00     0.00    94.71     0  00:00        0.00
  XZnode2753           JUNCTION     0.00     0.00    94.97     0  00:00        0.00
  XZnode2755           JUNCTION     0.73     2.00    97.42     0  00:47        1.41
  XZnode2756           JUNCTION     1.24     2.00    97.12     0  00:47        2.00
  XZnode2830           JUNCTION     0.06     0.15    90.13     0  00:54        0.13
  XZnode2831           JUNCTION     0.50     1.58    91.16     0  00:46        1.06
  XZnode2832           JUNCTION     0.36     0.59    89.94     0  00:54        0.56
  XZnode2833           JUNCTION     0.49     0.64    90.22     0  00:54        0.63
  XZnode2834           JUNCTION     1.37     2.00    92.04     0  00:34        2.00
  XZnode2835           JUNCTION     1.53     2.00    92.61     0  00:34        2.00
  XZnode2836           JUNCTION     1.66     2.00    93.18     0  00:29        2.00
  XZnode2837           JUNCTION     0.26     2.00    94.84     0  00:35        0.35
  XZnode2838           JUNCTION     0.32     0.53    93.56     0  00:54        0.49
  XZnode2839           JUNCTION     0.29     0.51    93.80     0  00:54        0.46
  XZnode2840           JUNCTION     0.75     1.00    93.90     0  00:50        0.91
  XZnode2841           JUNCTION     0.27     0.52    94.48     0  00:53        0.45
  XZnode2842           JUNCTION     0.00     0.00    89.85     0  00:00        0.00
  XZnode2843           JUNCTION     0.49     0.81    79.85     0  00:58        0.80
  XZnode2846           JUNCTION     0.86     2.00    92.55     0  00:48        2.00
  XZnode2847           JUNCTION     0.00     0.00    98.97     0  00:00        0.00
  XZnode2848           JUNCTION     1.33     2.00    95.96     0  00:20        1.91
  XZnode2850           JUNCTION     0.50     1.90    96.73     0  00:44        1.06
  XZnode2851           JUNCTION     1.66     2.00    97.50     0  00:21        2.00
  XZnode2852           JUNCTION     0.43     2.00    97.42     0  00:45        0.70
  XZnode2853           JUNCTION     1.20     2.00    95.96     0  00:40        2.00
  XZnode2854           JUNCTION     1.11     2.00    96.94     0  00:42        2.00
  XZnode2855           JUNCTION     0.11     0.19    98.92     0  00:52        0.17
  XZnode2856           JUNCTION     0.23     0.39    95.88     0  00:53        0.36
  XZnode2857           JUNCTION     0.24     0.42    92.55     0  00:53        0.39
  XZnode2858           JUNCTION     0.00     0.00    79.93     0  00:00        0.00
  XZnode2859           JUNCTION     0.00     0.00   113.34     0  00:00        0.00
  XZnode2860           JUNCTION     0.00     0.00    81.18     0  00:00        0.00
  XZnode2861           JUNCTION     0.33     0.41    69.48     0  01:03        0.41
  XZnode2862           JUNCTION     0.91     2.00    76.33     0  00:53        1.84
  XZnode2863           JUNCTION     1.28     2.00    74.05     0  00:42        2.00
  XZnode2864           JUNCTION     1.43     2.00    78.32     0  00:43        2.00
  XZnode2865           JUNCTION     0.70     1.35    77.75     0  00:43        1.19
  XZnode2866           JUNCTION     1.02     2.00    82.92     0  00:41        2.00
  XZnode2867           JUNCTION     0.00     0.00    90.60     0  00:00        0.00
  XZnode2869           JUNCTION     0.17     0.28    94.52     0  00:53        0.26
  XZnode2870           JUNCTION     0.40     0.65    81.44     0  00:54        0.62
  XZnode2873           JUNCTION     0.00     0.00    84.51     0  00:00        0.00
  XZnode2874           JUNCTION     0.00     0.00   101.27     0  00:00        0.00
  XZnode2875           JUNCTION     0.00     0.00   101.71     0  00:00        0.00
  XZnode2876           JUNCTION     0.00     0.00   101.94     0  00:00        0.00
  XZnode2877           JUNCTION     0.38     0.43   101.92     0  00:52        0.42
  XZnode2878           JUNCTION     0.00     0.00   102.19     0  00:00        0.00
  XZnode2879           JUNCTION     0.00     0.00   102.13     0  00:00        0.00
  XZnode2881           JUNCTION     0.00     0.00    98.41     0  00:00        0.00
  XZnode2882           JUNCTION     0.52     0.84    93.47     0  00:55        0.83
  XZnode2883           JUNCTION     0.49     0.78    96.58     0  00:55        0.77
  XZnode2884           JUNCTION     0.58     2.00    78.70     0  00:56        1.28
  XZnode2885           JUNCTION     0.00     0.00    78.54     0  00:56        0.00
  XZnode2886           JUNCTION     0.64     2.00    80.35     0  00:51        1.46
  XZnode2887           JUNCTION     0.48     0.76    77.50     0  00:55        0.75
  XZnode2888           JUNCTION     1.33     2.00    76.71     0  00:46        2.00
  XZnode2889           JUNCTION     0.66     2.00    76.87     0  00:54        1.53
  XZnode2890           JUNCTION     0.69     0.99    56.08     0  00:56        0.98
  XZnode2897           JUNCTION     0.51     0.85    90.32     0  00:54        0.78
  XZnode2898           JUNCTION     0.39     0.65    87.92     0  00:54        0.61
  XZnode2900           JUNCTION     0.28     0.45    91.28     0  00:54        0.43
  XZnode2902           JUNCTION     0.70     2.00    93.88     0  00:45        2.00
  XZnode2904           JUNCTION     0.00     0.00   106.14     0  00:00        0.00
  XZnode2905           JUNCTION     0.09     0.15   104.47     0  00:52        0.14
  XZnode2907           JUNCTION     0.69     1.27    67.73     0  01:01        1.17
  XZnode2908           JUNCTION     1.14     1.94    67.72     0  01:01        1.84
  XZnode2910           JUNCTION     0.00     0.00    62.49     0  00:00        0.00
  XZnode2911           JUNCTION     1.54     2.00    54.15     0  00:47        2.00
  XZnode2912           JUNCTION     1.17     2.00    57.91     0  00:34        2.00
  XZnode2913           JUNCTION     1.30     2.00    57.51     0  00:42        2.00
  XZnode2915           JUNCTION     0.54     2.00    60.28     0  00:47        2.00
  XZnode2916           JUNCTION     1.31     2.00    60.76     0  00:47        2.00
  XZnode2917           JUNCTION     0.50     0.81    59.95     0  00:47        0.79
  XZnode2927           JUNCTION     1.12     1.44    83.92     0  00:13        1.35
  XZnode2928           JUNCTION     1.95     2.00    83.59     0  00:13        2.00
  XZnode2929           JUNCTION     0.24     0.37    82.49     0  00:54        0.36
  XZnode2931           JUNCTION     1.68     2.00   105.62     0  00:28        2.00
  XZnode2933           JUNCTION     1.88     2.00    95.33     0  00:35        2.00
  XZnode2935           JUNCTION     0.19     0.31    54.48     0  00:53        0.29
  XZnode2936           JUNCTION     0.16     0.26    59.45     0  00:53        0.24
  XZnode2937           JUNCTION     0.00     0.00    58.82     0  00:00        0.00
  XZnode2938           JUNCTION     0.00     0.00    57.69     0  00:00        0.00
  XZnode2939           JUNCTION     0.00     0.00    67.06     0  00:00        0.00
  XZnode2940           JUNCTION     0.00     0.00    63.36     0  00:00        0.00
  XZnode2941           JUNCTION     0.00     0.00    59.83     0  00:00        0.00
  XZnode2942           JUNCTION     0.91     2.00    57.84     0  00:52        1.88
  XZnode2944           JUNCTION     1.13     2.00    61.11     0  00:49        2.00
  XZnode2945           JUNCTION     1.46     2.00    54.29     0  00:48        1.98
  XZnode2946           JUNCTION     0.71     2.00    78.36     0  00:48        1.98
  XZnode2947           JUNCTION     0.00     0.00    78.63     0  00:00        0.00
  XZnode2948           JUNCTION     0.82     2.00    80.63     0  00:50        2.00
  XZnode2949           JUNCTION     0.18     0.34    74.29     0  00:51        0.30
  XZnode2950           JUNCTION     0.00     0.00    72.32     0  00:00        0.00
  XZnode2951           JUNCTION     0.00     0.00    68.49     0  00:00        0.00
  XZnode2952           JUNCTION     0.00     0.00    56.34     0  00:00        0.00
  XZnode2953           JUNCTION     1.37     1.85    54.18     0  00:47        1.83
  XZnode2955           JUNCTION     0.47     0.58    52.72     0  01:38        0.57
  XZnode2957           JUNCTION     0.55     2.00    80.10     0  00:49        1.41
  XZnode2958           JUNCTION     0.78     2.00    80.45     0  00:48        2.00
  XZnode2959           JUNCTION     0.49     2.00    80.04     0  00:49        1.38
  XZnode3130           JUNCTION     0.42     0.75    82.18     0  00:53        0.69
  XZnode3131           JUNCTION     0.35     0.76    80.86     0  00:54        0.60
  XZnode3132           JUNCTION     0.29     0.49    82.85     0  00:53        0.45
  XZnode3133           JUNCTION     0.00     0.00    77.91     0  00:27        0.00
  XZnode3134           JUNCTION     0.84     2.00    78.06     0  00:27        0.94
  XZnode3135           JUNCTION     1.84     2.00    76.99     0  00:22        2.00
  XZnode3136           JUNCTION     1.41     2.00    75.17     0  00:19        1.59
  XZnode3137           JUNCTION     0.36     0.50    72.55     0  00:54        0.48
  XZnode3138           JUNCTION     0.00     0.00    75.83     0  00:00        0.00
  XZnode3139           JUNCTION     0.00     0.00    74.09     0  00:00        0.00
  XZnode3140           JUNCTION     0.00     0.00    72.96     0  00:00        0.00
  XZnode3141           JUNCTION     0.00     0.00    66.28     0  00:00        0.00
  XZnode3142           JUNCTION     0.43     0.60    65.33     0  00:29        0.56
  XZnode3143           JUNCTION     1.23     2.00    66.89     0  00:28        2.00
  XZnode3145           JUNCTION     0.64     0.72    72.37     0  00:39        0.71
  XZnode3147           JUNCTION     0.61     0.68    76.72     0  00:38        0.68
  XZnode3148           JUNCTION     0.58     0.64    81.78     0  00:38        0.64
  XZnode3149           JUNCTION     0.56     0.61    83.20     0  02:02        0.61
  XZnode3150           JUNCTION     1.68     2.00    85.67     0  00:37        2.00
  XZnode3151           JUNCTION     0.00     0.00    88.46     0  00:00        0.00
  XZnode3152           JUNCTION     0.25     0.42    88.65     0  00:53        0.39
  XZnode3153           JUNCTION     0.28     0.48    82.58     0  00:53        0.43
  XZnode3154           JUNCTION     0.34     0.58    80.05     0  00:54        0.53
  XZnode3155           JUNCTION     0.24     0.40    79.60     0  00:54        0.37
  XZnode3156           JUNCTION     0.31     0.50    75.89     0  00:54        0.48
  XZnode3157           JUNCTION     0.33     0.53    73.69     0  00:55        0.50
  XZnode3158           JUNCTION     0.34     0.55    72.59     0  00:54        0.52
  XZnode3160           JUNCTION     1.35     2.00    83.52     0  00:49        2.00
  XZnode3161           JUNCTION     0.97     1.76    83.87     0  00:52        1.72
  XZnode3162           JUNCTION     1.81     2.00    83.18     0  00:14        2.00
  XZnode3163           JUNCTION     0.57     0.87    82.28     0  00:54        0.83
  XZnode3164           JUNCTION     0.50     0.88    84.51     0  00:56        0.85
  XZnode3165           JUNCTION     0.44     0.59    85.16     0  00:56        0.59
  XZnode3166           JUNCTION     0.76     1.75    87.47     0  00:41        1.47
  XZnode3167           JUNCTION     0.95     2.00    88.42     0  00:43        2.00
  XZnode3168           JUNCTION     0.75     2.00    76.56     0  00:47        2.00
  XZnode3169           JUNCTION     0.15     2.00    77.84     0  00:50        0.78
  XZnode3170           JUNCTION     0.00     0.01    76.00     0  00:54        0.01
  XZnode3171           JUNCTION     0.43     2.00    76.58     0  00:53        0.93
  XZnode3172           JUNCTION     0.85     2.00    75.01     0  00:46        2.00
  XZnode3173           JUNCTION     0.82     2.00    75.44     0  00:47        2.00
  XZnode3174           JUNCTION     0.72     2.00    75.86     0  00:47        1.88
  XZnode3175           JUNCTION     0.48     2.00    75.08     0  00:52        0.95
  XZnode3176           JUNCTION     0.59     2.00    73.11     0  00:47        1.00
  XZnode3177           JUNCTION     0.93     2.00    74.38     0  00:45        2.00
  XZnode3178           JUNCTION     0.54     0.77    71.19     0  00:48        0.76
  XZnode3179           JUNCTION     0.38     0.68    73.26     0  00:55        0.63
  XZnode3180           JUNCTION     0.32     0.51    69.05     0  00:56        0.50
  XZnode3182           JUNCTION     0.55     0.80    69.28     0  00:48        0.79
  XZnode3184           JUNCTION     0.59     0.94    81.92     0  00:53        0.87
  XZnode3185           JUNCTION     0.45     0.79    83.98     0  00:53        0.73
  XZnode3186           JUNCTION     0.00     0.00    81.04     0  00:00        0.00
  XZnode3187           JUNCTION     0.00     0.00    81.28     0  00:00        0.00
  XZnode3188           JUNCTION     0.46     2.00    73.53     0  00:47        1.13
  XZnode3189           JUNCTION     0.26     0.27    71.76     0  00:48        0.27
  XZnode3191           JUNCTION     1.02     2.00    72.44     0  00:44        2.00
  XZnode3194           JUNCTION     0.37     0.60    81.18     0  00:54        0.57
  XZnode3195           JUNCTION     0.59     2.00    89.85     0  00:47        2.00
  XZnode3196           JUNCTION     0.57     0.72    67.50     0  00:49        0.72
  XZnode3197           JUNCTION     1.08     2.00    72.85     0  00:49        2.00
  XZnode3198           JUNCTION     0.00     0.00    72.99     0  00:00        0.00
  XZnode3200           JUNCTION     1.93     2.00    89.63     0  00:15        2.00
  XZnode3201           JUNCTION     1.93     2.00    90.12     0  00:14        2.00
  XZnode3202           JUNCTION     1.88     2.00    91.14     0  00:16        2.00
  XZnode3203           JUNCTION     1.76     2.00    92.90     0  00:23        2.00
  XZnode3204           JUNCTION     1.92     2.00    91.50     0  00:16        2.00
  XZnode3205           JUNCTION     1.87     2.00    92.51     0  00:17        2.00
  XZnode3206           JUNCTION     1.88     2.00    93.00     0  00:18        2.00
  XZnode3207           JUNCTION     0.22     0.36    79.03     0  00:54        0.33
  XZnode3208           JUNCTION     0.97     1.53    72.41     0  00:52        1.48
  XZnode3210           JUNCTION     1.42     2.00    72.94     0  00:44        2.00
  XZnode3211           JUNCTION     0.00     0.00    78.92     0  00:00        0.00
  XZnode3212           JUNCTION     0.23     0.37    78.03     0  00:54        0.35
  XZnode3213           JUNCTION     0.51     2.00    77.68     0  00:52        0.93
  XZnode3214           JUNCTION     0.00     0.00    79.33     0  00:00        0.00
  XZnode3215           JUNCTION     0.27     0.43    79.28     0  00:55        0.41
  XZnode3216           JUNCTION     0.78     2.00    78.29     0  00:48        2.00
  XZnode3217           JUNCTION     1.10     1.66    69.37     0  00:53        1.56
  XZnode3218           JUNCTION     1.13     1.69    69.36     0  00:53        1.58
  XZnode3219           JUNCTION     1.98     2.00   100.19     0  00:06        2.00
  XZnode3220           JUNCTION     1.97     2.00   100.58     0  00:18        2.00
  XZnode3221           JUNCTION     0.98     1.11    79.20     0  00:24        1.06
  XZnode3222           JUNCTION     1.89     2.00    79.15     0  00:26        2.00
  XZnode3223           JUNCTION     1.53     1.73    79.26     0  00:26        1.70
  XZnode3224           JUNCTION     0.00     0.00    80.23     0  00:00        0.00
  XZnode3225           JUNCTION     1.92     2.00    79.27     0  00:14        2.00
  XZnode3226           JUNCTION     1.85     2.00    80.03     0  00:24        2.00
  XZnode3227           JUNCTION     1.79     2.00    80.34     0  00:19        2.00
  XZnode3228           JUNCTION     1.53     2.00    78.51     0  00:33        2.00
  XZnode3229           JUNCTION     1.42     1.65    73.70     0  00:25        1.59
  XZnode3231           JUNCTION     0.00     0.00    73.81     0  00:00        0.00
  XZnode3232           JUNCTION     0.32     2.00    79.84     0  00:52        0.45
  XZnode3233           JUNCTION     1.38     2.00    71.91     0  00:47        2.00
  XZnode3234           JUNCTION     0.00     0.00    77.43     0  00:00        0.00
  XZnode3235           JUNCTION     0.23     0.34    68.50     0  00:54        0.33
  XZnode3236           JUNCTION     0.89     2.00    71.75     0  00:46        2.00
  XZnode3237           JUNCTION     0.00     0.00    69.60     0  00:00        0.00
  XZnode3238           JUNCTION     0.75     2.00    69.20     0  00:50        2.00
  XZnode3239           JUNCTION     0.41     0.59    61.67     0  00:55        0.58
  XZnode3240           JUNCTION     0.42     0.60    54.76     0  00:56        0.60
  XZnode3241           JUNCTION     0.37     0.59    61.34     0  00:54        0.56
  XZnode3242           JUNCTION     0.64     0.95    53.27     0  00:56        0.94
  XZnode3243           JUNCTION     0.55     0.81    52.49     0  00:56        0.80
  XZnode3246           JUNCTION     0.33     0.51    54.39     0  00:55        0.50
  XZnode3247           JUNCTION     0.00     0.00    51.39     0  00:00        0.00
  XZnode3249           JUNCTION     0.38     0.59    51.54     0  00:55        0.58
  XZnode3250           JUNCTION     0.45     0.71    53.93     0  00:55        0.69
  XZnode3251           JUNCTION     0.41     0.64    56.83     0  00:56        0.63
  XZnode3252           JUNCTION     0.32     0.49    62.16     0  00:54        0.47
  XZnode3253           JUNCTION     0.39     0.61    61.64     0  00:54        0.59
  XZnode3254           JUNCTION     0.86     2.00    63.26     0  00:53        2.00
  XZnode3255           JUNCTION     0.41     0.46    74.40     0  00:50        0.46
  XZnode3256           JUNCTION     0.73     0.80    77.18     0  00:44        0.80
  XZnode3257           JUNCTION     0.52     0.70    85.17     0  00:53        0.65
  XZnode3258           JUNCTION     1.68     2.00    88.21     0  00:30        2.00
  XZnode3259           JUNCTION     0.34     0.54    85.80     0  00:55        0.53
  XZnode3260           JUNCTION     0.00     0.00    88.41     0  00:00        0.00
  XZnode3262           JUNCTION     1.70     2.00    61.18     0  00:13        1.93
  XZnode3263           JUNCTION     0.40     0.60    60.53     0  00:54        0.57
  XZnode3264           JUNCTION     1.26     2.00    67.25     0  00:37        2.00
  XZnode3265           JUNCTION     1.59     2.00    62.32     0  00:28        2.00
  XZnode3267           JUNCTION     0.00     0.00    69.01     0  00:00        0.00
  XZnode3268           JUNCTION     1.88     2.00   107.38     0  00:17        2.00
  XZnode3270           JUNCTION     0.00     0.00   104.20     0  00:00        0.00
  XZnode3271           JUNCTION     0.00     0.00   104.81     0  00:00        0.00
  XZnode3272           JUNCTION     0.00     0.00   110.29     0  00:00        0.00
  XZnode3273           JUNCTION     0.62     2.00   107.86     0  00:45        2.00
  XZnode3274           JUNCTION     0.70     2.00   106.69     0  00:44        2.00
  XZnode3275           JUNCTION     0.32     0.48   103.10     0  00:55        0.46
[...]
  
  
  *************************
  Conduit Surcharge Summary
  *************************
  
  ----------------------------------------------------------------------------
                                                           Hours        Hours 
                         --------- Hours Full --------   Above Full   Capacity
  Conduit                Both Ends  Upstream  Dnstream   Normal Flow   Limited
  ----------------------------------------------------------------------------
  link348                     0.01      0.01      2.00      0.90         0.01
  link581                     0.01      0.01      0.31      0.01         0.01
  link582                     0.24      0.31      0.24      0.36         0.24
  link380                     0.75      1.84      0.75      1.88         0.75
  link374                     1.18      1.18      1.51      1.07         1.07
  link375                     0.01      1.51      0.01      1.69         0.01
  link961                     0.21      0.21      0.26      0.22         0.18
  link962                     0.01      0.26      0.01      0.43         0.01
  link966                     0.01      0.01      0.01      0.06         0.01
  link972                     1.95      1.95      1.97      0.01         0.01
  link971                     1.94      1.94      1.97      0.01         0.01
  link973                     1.93      1.93      1.95      0.01         0.01
  link979                     0.14      1.52      0.14      1.60         0.14
  link974                     0.16      0.16      0.97      0.01         0.01
  link975                     0.14      0.14      1.10      1.26         0.01
  link1003                    1.56      1.56      1.82      0.01         0.01
  link1004                    0.01      1.82      0.01      1.78         0.01
  link1001                    0.01      0.59      0.01      0.67         0.01
  link1002                    0.01      0.01      0.59      0.04         0.01
  link1000                    0.34      0.60      0.34      0.72         0.34
  link983                     0.01      0.59      0.01      0.58         0.01
  link978                     1.53      1.53      1.53      0.01         0.02
  link1006                    0.01      1.93      0.01      1.92         0.01
  link1031                    0.01      2.16      0.01      2.16         0.01
  link1012                    1.53      1.53      1.87      0.01         0.01
  link1014                    0.87      0.87      2.06      0.02         0.01
  link1015                    1.27      1.27      1.61      0.01         0.01
  link1016                    1.56      1.56      1.65      1.56         1.55
  link1017                    0.01      1.65      0.01      1.70         0.01
  link1019                    2.02      2.02      2.12      0.01         0.01
  link1025                    1.98      1.98      2.09      0.01         0.01
  link1026                    2.04      2.09      2.04      2.10         2.04
  link1028                    0.01      0.83      0.01      0.84         0.01
  link1032                    0.01      2.06      0.01      2.08         0.01
  link1034                    0.01      0.41      0.01      0.55         0.01
  link989                     0.01      1.97      0.01      1.97         0.01
  link1037                    0.01      0.74      0.01      0.73         0.01
  link1038                    0.31      0.31      2.02      0.01         0.01
  link1039                    0.01      0.52      0.01      0.51         0.01
  link1041                    0.01      0.01      2.08      0.01         0.01
  link1043                    1.94      2.01      1.94      2.03         1.94
  link1044                    1.98      1.98      2.01      0.01         0.01
  link1045                    1.98      1.98      2.12      0.01         0.01
  link1046                    1.98      1.98      2.12      0.01         0.01
  link1047                    0.01      0.01      1.96      0.01         0.01
  link1048                    0.01      0.01      1.96      0.01         0.01
  link997                     1.13      1.13      1.78      0.01         0.01
  link998                     1.32      1.32      1.78      1.58         0.01
  link1005                    0.17      0.17      1.24      0.01         0.01
  link987                     1.54      1.54      2.00      1.49         1.49
  link981                     1.46      1.46      1.50      1.48         1.44
  link980                     1.41      1.41      1.43      1.41         1.38
  link346                     0.41      0.41      1.82      0.02         0.01
  link982                     1.43      1.43      1.82      1.42         1.39
  link1013                    1.72      1.72      1.91      0.12         0.07
  link1029                    0.01      0.01      1.56      0.01         0.01
  link1769                    0.01      1.10      0.01      1.07         0.01
  link1772                    0.01      0.01      2.09      0.01         0.01
  link1773                    0.29      0.29      2.09      0.01         0.01
  link1771                    0.01      0.01      2.08      0.01         0.01
  link2223                    0.01      0.01      0.43      0.01         0.01
  link2225                    0.01      1.45      0.01      1.63         0.01
  link2226                    1.69      1.69      1.81      1.23         1.19
  link2227                    1.64      1.64      1.69      1.13         1.09
  link2228                    0.01      0.01      1.70      0.01         0.01
  link2232                    0.01      0.01      0.01      0.08         0.01
  link2224                    0.01      0.43      0.01      0.75         0.01
  link2235                    0.01      0.01      0.01      0.19         0.01
  link2236                    0.01      0.41      0.01      0.45         0.01
  link2132                    1.41      1.42      1.42      1.47         1.41
  link2230                    0.01      0.01      0.01      0.18         0.01
  link2231                    0.01      0.01      0.52      0.01         0.01
  link2137                    0.01      0.01      0.14      0.01         0.01
  link2138                    0.01      1.10      0.01      1.17         0.01
  link2139                    1.10      1.10      1.15      1.13         0.01
  link2140                    1.54      1.57      1.54      1.63         1.01
  link2141                    0.51      1.03      0.51      1.45         0.51
  link2142                    0.51      0.51      0.54      0.54         0.51
  link2151                    1.97      1.97      2.02      1.43         1.40
  link2265                    0.01      0.01      1.97      2.03         0.01
  link2154                    0.40      0.40      1.10      0.40         0.01
  link2240                    0.73      1.85      0.73      1.96         0.72
  link2241                    0.95      0.95      1.08      0.09         0.04
  link2239                    0.54      0.54      1.90      0.01         0.01
  link2242                    0.73      0.73      1.08      0.01         0.01
  link2243                    0.01      1.08      0.01      0.96         0.01
  link2246                    0.01      0.01      1.10      0.01         0.01
  link2254                    0.77      0.77      1.90      0.03         0.03
  link2252                    0.72      0.72      1.60      1.92         0.01
  link2253                    0.72      0.72      0.76      0.05         0.01
  link2251                    0.66      0.66      0.93      0.01         0.01
  link2269                    0.41      0.84      0.41      0.76         0.16
  link2155                    0.01      0.40      0.01      0.53         0.01
  link2238                    0.01      0.01      1.90      0.01         0.01
  link2272                    0.10      0.10      1.12      0.01         0.01
  link2270                    0.01      0.01      0.14      0.01         0.01
  link2271                    0.01      0.27      0.01      0.31         0.01
  link2273                    0.01      0.01      0.27      0.01         0.01
  link2275                    0.27      0.27      1.35      0.01         0.01
  link2325                    0.01      0.01      1.39      0.01         0.01
  link2470                    0.01      0.01      1.84      0.01         0.01
  link2334                    0.20      0.21      0.21      0.09         0.03
  link2335                    0.21      0.24      0.21      0.59         0.21
  link2333                    0.44      0.65      0.44      0.81         0.44
  link2499                    0.49      0.62      0.49      0.67         0.49
  link2500                    0.56      0.56      0.62      0.01         0.01
  link2495                    0.53      0.53      0.56      0.01         0.01
  link2496                    0.50      0.50      0.53      0.01         0.01
  link2497                    0.43      0.43      0.50      0.28         0.28
  link2493                    0.01      0.01      0.43      0.01         0.01
  link2494                    0.01      0.01      0.13      0.01         0.01
  link2498                    0.13      0.13      0.21      0.11         0.10
  link2502                    0.01      0.21      0.01      0.32         0.01
  link2519                    0.01      1.99      0.01      2.00         0.01
  link2520                    2.00      2.00      2.01      0.11         0.04
  link2523                    1.97      1.97      2.00      0.01         0.01
  link2524                    1.95      1.95      1.97      0.01         0.01
  link2525                    1.95      1.95      1.95      0.62         0.58
  link2521                    1.97      1.97      2.00      0.01         0.01
  link2522                    1.76      1.76      1.97      0.01         0.01
  link2530                    0.01      0.01      1.52      0.01         0.01
  link2526                    0.01      0.01      0.83      0.01         0.01
  link2527                    0.01      0.83      0.01      1.27         0.01
  link2477                    0.01      1.51      0.01      1.61         0.01
  link2460                    0.01      0.01      1.80      0.01         0.01
  link2461                    1.80      1.80      1.87      0.01         0.01
  link2462                    1.90      1.90      1.92      1.87         1.87
  link2517                    0.01      0.82      0.01      0.85         0.01
  link2616                    0.01      1.44      0.01      1.72         0.01
  link2328                    1.71      1.71      1.81      0.01         0.01
  link2330                    1.43      1.43      1.64      0.01         0.01
  link2331                    0.01      1.43      0.01      1.68         0.01
  link2463                    0.02      1.92      0.02      1.94         0.02
  link2488                    0.01      1.08      0.01      1.78         0.01
  link2486                    1.53      1.53      1.93      0.01         0.01
  link2487                    1.53      1.53      2.00      0.01         0.01
  link2489                    0.01      0.01      1.53      0.01         0.01
  link2490                    0.01      0.01      0.22      0.01         0.01
  link2491                    0.01      0.72      0.01      0.78         0.01
  link2492                    0.72      0.73      0.72      0.77         0.72
  link2512                    0.67      0.68      0.70      0.73         0.67
  link2513                    0.52      0.52      0.68      0.01         0.01
  link2283                    0.01      0.01      2.09      0.01         0.01
  link2542                    1.93      1.93      2.01      0.01         0.01
  link2543                    1.48      1.48      1.92      1.36         1.36
  link2538                    1.84      1.84      1.96      0.01         0.01
  link2537                    2.14      2.14      2.15      0.01         0.01
  link2545                    0.09      0.09      2.06      0.01         0.01
  link2546                    0.69      0.69      2.06      0.49         0.01
  link2501                    0.01      0.49      0.01      0.56         0.01
  link2550                    0.01      0.40      0.01      0.39         0.01
  link2642                    0.47      0.47      1.94      0.01         0.01
  link2569                    0.01      0.01      1.81      0.01         0.01
  link2570                    0.01      1.61      0.01      1.66         0.01
  link2534                    0.38      0.38      0.41      0.01         0.01
  link2324                    0.27      0.37      0.27      0.62         0.26
  link2571                    0.01      0.01      0.37      0.01         0.01
  link2575                    1.16      1.16      1.73      0.01         0.01
  link2577                    1.66      1.66      2.02      1.24         1.24
  link2574                    0.01      0.01      2.02      0.01         0.01
  link2471                    0.07      1.59      0.07      1.73         0.07
  link2637                    0.01      0.01      2.03      0.01         0.01
  link2639                    1.57      1.57      1.64      0.11         0.01
  link2284                    0.01      0.01      0.01      0.31         0.01
  link2289                    0.48      0.48      1.58      0.01         0.01
  link2321                    0.81      0.81      1.37      0.71         0.71
  link2296                    1.30      1.30      1.53      0.45         0.01
  link2298                    0.40      0.40      1.53      0.01         0.01
  link2647                    0.54      0.54      0.84      0.01         0.01
  link2646                    0.84      0.84      1.18      0.01         0.01
  link2516                    0.38      0.38      0.65      0.41         0.36
  link2458                    0.01      0.01      0.31      0.01         0.01
  link2311                    0.01      1.64      0.01      1.67         0.01
  link2308                    0.01      0.01      2.04      0.01         0.01
  link2583                    1.96      1.96      1.97      0.01         0.01
  link2579                    1.97      1.97      1.98      1.94         1.95
  link2584                    0.41      0.41      0.48      0.01         0.01
  link2585                    0.01      0.48      0.01      0.53         0.01
  link2589                    2.03      2.03      2.17      0.01         0.01
  link2590                    2.02      2.02      2.03      0.30         0.29
  link2610                    0.01      0.01      1.93      0.01         0.01
  link2313                    0.01      0.01      1.89      0.01         0.01
  link2614                    0.01      1.40      0.01      1.66         0.01
  link2310                    0.01      0.01      1.32      1.51         0.01
  link4265                    1.70      1.81      1.70      1.93         1.70
  link2250                    0.01      0.01      1.32      0.01         0.01
  link2297                    0.01      1.53      0.01      1.57         0.01
  link2307                    0.01      0.01      2.02      0.01         0.01
  link2322                    0.38      0.38      1.23      0.01         0.01
  link2548                    0.01      0.68      0.01      0.65         0.01
  link353                     0.01      1.44      0.01      1.54         0.01
  link355                     1.42      1.43      1.44      1.48         1.41
  link356                     1.35      1.35      1.43      0.01         0.01
  link341                     1.31      1.31      1.36      0.04         0.03
  link344                     1.31      1.34      1.31      1.41         1.31
  link345                     1.35      1.35      1.58      0.40         0.41
  link342                     1.58      1.58      1.60      0.01         0.01
  link343                     1.60      1.60      1.63      0.01         0.01
  link354                     1.54      1.63      1.54      1.67         1.54
  link360                     1.80      1.80      1.91      0.01         0.01
  link371                     0.01      0.01      1.09      0.01         0.01
  link372                     1.09      1.09      1.80      0.01         0.01
  link373                     1.82      1.82      1.85      1.79         1.79
  link377                     0.01      0.01      1.92      1.91         0.01
  link369                     0.01      0.01      1.79      0.01         0.01
  link370                     1.79      1.79      2.05      0.01         0.01
  link368                     0.01      0.01      0.44      0.01         0.01
  link977                     0.09      0.09      1.61      0.01         0.01
  link1020                    0.01      0.01      0.16      0.01         0.01
  link1021                    0.01      0.01      0.16      0.01         0.01
  link1022                    0.01      0.01      0.16      0.01         0.01
  link376                     1.85      1.85      1.92      1.81         1.81
  link976                     1.61      1.61      1.94      0.01         0.01
  link2276                    1.35      1.36      1.35      1.50         1.30
  link2274                    1.12      1.12      1.34      0.01         0.01
  link2613                    1.54      1.54      1.55      1.56         1.52
  link2611                    0.01      1.55      0.01      1.62         0.01
  link2640                    0.01      0.01      0.68      0.54         0.01
  link2641                    0.01      0.01      0.68      0.01         0.01
  link2539                    0.01      0.01      1.82      0.01         0.01
  link2320                    0.01      0.36      0.01      0.42         0.01
  link2565                    0.27      0.27      0.36      0.27         0.22
  link2566                    0.01      0.01      0.27      0.01         0.01
  link2568                    0.01      1.58      0.01      1.67         0.01
  link2638                    1.93      1.93      1.94      1.92         1.92
  link2617                    0.09      0.09      0.10      1.48         0.01
  link2618                    0.10      0.10      0.17      0.05         0.01
  link2531                    0.17      0.17      1.71      0.01         0.01
  link2528                    1.34      1.71      1.34      1.87         1.34
  link2632                    0.01      0.01      1.93      0.01         0.01
  link2633                    0.89      0.89      1.85      0.01         0.01
  link2629                    0.01      0.01      1.96      0.01         0.01
  link2293                    0.01      0.01      0.14      0.01         0.01
  link2294                    0.01      0.14      0.01      0.39         0.01
  link2604                    0.01      0.01      0.24      0.01         0.01
  link2624                    0.01      0.01      0.60      0.01         0.01
  link2623                    0.01      0.12      0.01      0.19         0.01
  link2630                    1.17      1.17      1.96      0.69         0.69
  link2299                    0.01      0.01      1.76      0.65         0.01
  link2300                    0.01      0.01      0.01      0.43         0.01
  link2631                    0.01      0.01      1.96      0.01         0.01
  link4418                    1.80      1.80      1.82      0.01         0.01
  link4419                    0.01      0.01      0.01      1.78         0.01
  link2622                    0.01      0.01      0.12      0.01         0.01
  link2628                    0.01      0.01      1.88      0.01         0.01
  

  Analysis begun on:  Fri Mar 15 10:00:39 2024
  Analysis ended on:  Fri Mar 15 10:00:47 2024
  Total elapsed time: 00:00:08